<?xml version="1.0" encoding="UTF-8"?>

<!-- generated on Sun May  9 00:06:59 2021 by Eclipse SUMO GUI Version 1.8.0
-->

<configuration xmlns:xsi="http://www.w3.org/2001/XMLSchema-instance" xsi:noNamespaceSchemaLocation="http://sumo.dlr.de/xsd/sumoConfiguration.xsd">

    <input>
        <net-file value="/Users/liantao/Desktop/acc/acc.net.xml"/>
        <route-files value="/Users/liantao/Desktop/acc/acc.rou.xml"/>
    </input>
    <gui-settings-file value="gui-settings.cfg"/>
</configuration>
