<?xml version="1.0" encoding="UTF-8"?>

<!-- generated on Sun May  9 00:06:44 2021 by Eclipse SUMO netedit Version 1.8.0
<configuration xmlns:xsi="http://www.w3.org/2001/XMLSchema-instance" xsi:noNamespaceSchemaLocation="http://sumo.dlr.de/xsd/netconvertConfiguration.xsd">

    <input>
        <sumo-net-file value="/Users/liantao/Desktop/acc/acc.net.xml"/>
    </input>

    <output>
        <output-file value="/Users/liantao/Desktop/acc/acc.net.xml"/>
    </output>

    <processing>
        <geometry.min-radius.fix.railways value="false"/>
        <geometry.max-grade.fix value="false"/>
        <offset.disable-normalization value="true"/>
        <lefthand value="false"/>
    </processing>

    <junctions>
        <no-internal-links value="true"/>
        <no-turnarounds value="true"/>
        <junctions.corner-detail value="5"/>
        <junctions.limit-turn-speed value="5.5"/>
        <rectangular-lane-cut value="false"/>
    </junctions>

    <pedestrian>
        <walkingareas value="false"/>
    </pedestrian>

    <netedit>
        <route-files value="/Users/liantao/Desktop/acc/acc.rou.xml"/>
    </netedit>

    <report>
        <aggregate-warnings value="5"/>
    </report>

</configuration>
-->

<!--<routes xmlns:xsi="http://www.w3.org/2001/XMLSchema-instance" xsi:noNamespaceSchemaLocation="http://sumo.dlr.de/xsd/routes_file.xsd">-->
<!--    <route edges="gneE0" color="yellow" id="route_0"/>-->
<!--    <vehicle id="vehicle_0" depart="0.00" color="red" route="route_0"/>-->
<!--    <vehicle id="vehicle_1" depart="0.00" color="blue" route="route_0"/>-->
<!--</routes>-->

<routes>
    <vType id="type1" accel="4" decel="4" length="3" maxSpeed="30"/>
    <vType id="type2" accel="4" decel="4" length="3" maxSpeed="30"/>

    <route id="route0" color="1,1,0" edges="gneE0"/>

    <vehicle id="vehicle_0" type="type1" route="route0" depart="0" color="1,0,0" />
    <vehicle id="vehicle_1" type="type2" route="route0" depart="2" color="0,1,0" />

</routes>